# Packages
 &PACKAGES
 useMNC=.FALSE.,
 useDiagnostics=.TRUE.,
 useFLT=.FALSE.,
 useRBCS=.FALSE.,

 &
