# Packages
 &PACKAGES
 useMNC=.FALSE.,
 useDiagnostics=.FALSE.,
 useFLT=.TRUE.,
 useRBCS=.TRUE.,

 &
